Version 4
SHEET 1 1820 736
WIRE -352 -272 -560 -272
WIRE -224 -272 -352 -272
WIRE 80 -272 -96 -272
WIRE 432 -272 144 -272
WIRE 528 -272 432 -272
WIRE 624 -272 528 -272
WIRE 528 -256 528 -272
WIRE 624 -256 624 -272
WIRE -352 -192 -352 -272
WIRE -352 -96 -352 -128
WIRE -96 -96 -96 -192
WIRE 528 -96 528 -192
WIRE 624 -96 624 -176
WIRE -560 -80 -560 -272
WIRE 432 -64 432 -272
WIRE -224 48 -224 -192
WIRE 432 48 432 0
WIRE -400 128 -464 128
WIRE -272 128 -320 128
WIRE -560 160 -560 0
WIRE 432 176 432 128
WIRE 576 176 432 176
WIRE -224 192 -224 144
WIRE 128 192 0 192
WIRE 432 192 432 176
WIRE 432 192 320 192
WIRE -464 240 -464 128
WIRE 128 256 48 256
WIRE 48 288 48 256
WIRE 128 288 48 288
WIRE 432 288 432 272
WIRE 432 288 320 288
WIRE 432 352 432 288
WIRE -464 400 -464 320
WIRE 48 432 48 288
FLAG -352 -96 0
FLAG -560 160 0
FLAG -224 192 0
FLAG -464 400 0
FLAG 48 432 0
FLAG 0 192 opto
FLAG 432 352 0
FLAG 624 -96 0
FLAG 528 -96 0
FLAG -96 -96 0
FLAG 576 176 LED
SYMBOL voltage -560 -96 R0
WINDOW 123 0 0 Left 0
WINDOW 39 0 0 Left 0
SYMATTR InstName V1
SYMATTR Value 300
SYMBOL res 608 -272 R0
SYMATTR InstName R1
SYMATTR Value 20
SYMBOL voltage -464 224 R0
WINDOW 3 -140 234 Left 2
WINDOW 123 0 0 Left 0
WINDOW 39 0 0 Left 0
SYMATTR Value PULSE(0 5 10u 1n 1n {(1-D)*Ts} {Ts})
SYMATTR InstName V2
SYMBOL nmos -272 48 R0
SYMATTR InstName M1
SYMATTR Value IRF530
SYMBOL ind2 -240 -288 R0
WINDOW 3 -53 -1 Left 2
WINDOW 0 25 104 Left 2
SYMATTR Value 0.078
SYMATTR InstName L1
SYMBOL ind2 -80 -176 R180
WINDOW 0 33 8 Left 2
WINDOW 3 -76 113 Left 2
SYMATTR InstName L2
SYMATTR Value 0.000081
SYMBOL Cap 512 -256 R0
SYMATTR InstName C1
SYMATTR Value 10µ
SYMBOL diode 80 -256 R270
WINDOW 0 32 32 VTop 2
WINDOW 3 0 32 VBottom 2
SYMATTR InstName D3
SYMATTR Value MUR460
SYMBOL Cap -368 -192 R0
SYMATTR InstName C2
SYMATTR Value 2.2µ
SYMBOL Res -304 112 R90
WINDOW 0 0 56 VBottom 2
WINDOW 3 32 56 VTop 2
SYMATTR InstName R2
SYMATTR Value 10
SYMBOL Optos/4N25 224 256 M0
SYMATTR InstName U2
SYMBOL zener 448 0 R180
WINDOW 0 -30 65 Left 2
WINDOW 3 24 0 Left 2
SYMATTR InstName D1
SYMATTR Value BZX84C8V2L
SYMBOL Res 416 32 R0
SYMATTR InstName R3
SYMATTR Value 1k
SYMBOL Res 416 176 R0
SYMATTR InstName R5
SYMATTR Value 40k
TEXT -216 -344 Left 2 !K L1 L2 1
TEXT -600 576 Left 2 !.tran 0 10m
TEXT -600 496 Left 2 !.param D=0.5
TEXT -600 536 Left 2 !.param Ts=7.4u
RECTANGLE Normal -624 432 -140 676 1
